128
Lattice="10.527 0.0 0.0 0.0 10.527 0.0 0.0 0.0 10.527" pbc="T T T"
C      4.3503    5.4474    1.2314 
C      9.7300    6.6950    3.4236 
C     10.5185   10.0758    7.8513 
C      5.7360    6.2648    6.8533 
C      4.5098   10.0235    8.9431 
C      0.0571    9.0770    5.0403 
C      2.7485    3.8785    1.9078 
C      6.5551    7.9140    3.1584 
C      6.0696    1.4100    1.0737 
C      3.9243    8.5993    1.1276 
C      0.6246   10.0557    0.0432 
C      6.1503    3.3032    0.6469 
C      6.2920    5.7199    8.2764 
C      4.9329    1.1101    7.1222 
C      8.8712    4.0276    8.4693 
C      6.9304    1.3381    9.2268 
C      4.5828    4.0868    3.1132 
C      7.1649    8.9139    8.3121 
C      0.4277    8.3576    2.0589 
C      4.1209    9.8731    4.8282 
C      4.7017    2.3221    7.9266 
C     10.2284    2.4086    0.1302 
C      0.3551    2.7793    8.0966 
C      9.0309    2.7525    2.1273 
C      7.6827    5.6996    0.4713 
C      6.6498    3.9968    9.8165 
C      7.4640    9.6769    1.2583 
C      9.8119    7.4715    1.5965 
C      0.1989    5.9561    3.3580 
C      2.6948    2.2482    3.6343 
C      4.5589    7.1206    7.5862 
C      7.2211    8.3830    9.9947 
C      5.9723    8.2929   10.3267 
C      6.0142    0.5843   10.2894 
C      0.4769    1.8877    9.1551 
C      9.9268    4.4040    3.8386 
C      6.2022    2.9905    8.7059 
C      0.5801    6.8381   10.3287 
C      7.6228    0.8608    1.7299 
C      1.7149    0.8928    7.1659 
C      6.6150   10.2602    3.4627 
C      6.5727    6.8482    2.6116 
C      7.4249    3.3359    6.1979 
C      6.7688    8.9179    4.1748 
C      7.3942    4.6817    3.1226 
C      1.6012    6.1310    8.2414 
C      5.3535    3.0509    4.2483 
C      4.1584    1.1018    5.8042 
C      8.8797    7.8750    1.1806 
C      3.0738    7.3149    3.1064 
C     10.3420   10.5148    0.1223 
C      3.9702    2.1079    4.8456 
C      8.4070    9.4630    5.8982 
C      0.6124    2.2199    1.4033 
C     10.0922    5.8963    0.8926 
C      3.1434    3.2734    2.7593 
C      3.2752    2.5012    8.9709 
C      4.4874    6.0339   10.1393 
C      0.2971    3.7129    6.0172 
C      1.2214    1.5791    2.8869 
C      0.8697    0.4145    8.2589 
C      1.4084    7.8670   10.1809 
C      9.2407    0.9657    0.1852 
C      8.7870    3.9099    2.6202 
C      5.9626    9.5159    6.3317 
C      3.5709    8.6438    9.3366 
C      9.6398    5.8642    5.5359 
C      8.0720    1.4117    9.7372 
C      6.6173    2.0092    3.7415 
C      9.4500    4.5622    5.2104 
C      9.8886    7.9949    4.5687 
C      0.6549    4.9723    1.8765 
C      1.7999    9.1625    3.0630 
C      5.4836    9.0972    5.2117 
C      1.7553    4.8159    1.3000 
C      7.2390    0.8317    3.2414 
C      1.9419    4.5633   10.3481 
C      8.5958    5.1029    8.6072 
C      2.6246    3.6852    6.1544 
C      2.1705    5.8522    5.3952 
C      3.2579    8.8628    2.4560 
C      8.2004    3.8247    5.6303 
C      8.7583    6.5396    9.0416 
C      1.6032    8.5065    4.4806 
C      4.4672    7.9055    0.0863 
C      6.7994    5.5093    2.0776 
C      9.8801    7.0456    5.7252 
C      7.4381    6.6366    9.9181 
C      1.6376    6.0141    6.8148 
C      7.4563    3.2987    7.7234 
C      7.1022    9.8405    7.1978 
C      8.7306    1.4676    1.7122 
C      8.1215    8.5631    0.4030 
C      6.5843    4.9211    4.3076 
C      1.6960    0.0754    3.0801 
C      8.8881    4.7421    0.7466 
C      6.8419    0.7066    7.5849 
C      0.1594    3.6319    7.6237 
C      3.5465    6.3603    2.2476 
C      3.5475    8.0287    7.8791 
C      1.8470    8.6548    9.9565 
C     10.1414    0.0660    4.5921 
C      4.1201    3.3852    6.9291 
C      1.2891    5.6449    9.7232 
C      2.1508    3.0202    9.6948 
C      8.4249    8.7276    4.8001 
C      9.2391    7.1480    8.0954 
C      1.6967    6.9805    4.0440 
C      3.9422    9.9806    3.4410 
C      9.7600    9.2398    6.5803 
C      2.4844    1.2247    6.7640 
C      1.7832    4.4811    5.2180 
C      3.6860    4.7213    8.0389 
C      5.2053    0.0176    9.8252 
C      9.8249    7.8858    7.0426 
C      3.4126    5.1851    9.3170 
C      3.8659    5.6150    5.3689 
C      2.5188    9.2545    5.4962 
C      4.9887    0.9247    1.9807 
C      5.4556    4.5062    1.6684 
C      4.3172    0.4222    2.8259 
C      0.0788    2.3329    5.7008 
C      5.5747    5.1801    5.6327 
C      6.0160    5.4239    9.5388 
C      3.1926    8.8119    6.8111 
C      5.5342    3.7279    5.8349 
C     10.3546    1.3363    4.2517 
C      9.2793    3.5452   10.1531 
