128
Lattice="10.448 0.0 0.0 0.0 10.448 0.0 0.0 0.0 10.448" pbc="T T T"
C      7.4024    2.6337    2.0789 
C      5.4154    3.2554    3.9681 
C      9.4301    3.4668    0.3078 
C      4.7192    6.4129    4.9504 
C      7.8652    3.1362    8.4596 
C      1.5904    9.6377    6.3093 
C      0.3540   10.3038    5.2154 
C      8.4732    9.7348    8.2910 
C      0.1772    9.0943    2.0901 
C      1.0228    5.6161    1.8832 
C      1.3195    4.1211    2.0610 
C      6.1932    9.3133    1.0194 
C      2.7671    8.8422    4.0588 
C      4.0142    9.8803    6.7111 
C      6.4263    4.3372    0.8331 
C      3.8852    3.2941    9.6231 
C      1.3334    0.5927    9.2371 
C      4.1712    8.7322    7.2397 
C      3.2546    5.3087    0.2018 
C      7.3811    2.1606    5.5079 
C      6.3909    0.7310    5.5563 
C      5.3731    7.4555    4.8684 
C      3.6925    9.0767    1.3888 
C      8.6503    3.5104    9.7211 
C      5.3507    1.3055    8.1539 
C      1.4948    6.7246    3.8030 
C      8.2233    6.2356    5.0990 
C      0.3590    2.7243    5.5604 
C      7.8715    5.0515    5.5602 
C      9.4965    9.7743    9.8756 
C     10.4476    6.8405    9.2534 
C      5.2817    2.2353    9.1088 
C      7.6503    8.9037    4.2043 
C      2.6613    7.7854    9.5134 
C      7.0029    9.3430    9.9704 
C      8.3619    1.9711    6.8760 
C      7.8214    5.7446    9.5143 
C      5.6994    7.9661    6.6307 
C      9.6546    7.5328    7.2633 
C      3.1871    6.5050    5.1944 
C      1.3013    3.6316    3.2748 
C      2.0554    1.3571    9.0020 
C      1.3644    4.5662    8.9475 
C      3.5073    5.3036    8.3071 
C      1.9093    9.2595    7.4366 
C      8.0272    5.5862    8.2353 
C      4.9910    1.3406    2.5319 
C      2.3328    2.0635    1.9054 
C      5.2655    5.3929    6.0564 
C      5.0683    4.1141    1.2425 
C      6.0778    1.4619   10.3363 
C      8.3751    7.4879    4.5831 
C      8.8325    3.9686    5.0263 
C      1.7965    5.3132    6.4936 
C      9.8054    1.7620    3.2281 
C      2.7415    5.2274    5.7995 
C      3.5430    1.1557    4.5168 
C      0.0835    4.6621    4.1619 
C      1.1886    1.3781    1.8607 
C      9.3636    8.3503    0.6048 
C      3.5379    6.5976    2.4000 
C      3.5028    2.9576    6.8937 
C      8.4014    7.7470    1.6644 
C      7.3360    0.2566    2.9495 
C      6.1680    8.0791    1.4667 
C      4.6617    7.8862    2.3337 
C      2.5128    0.2185    3.9363 
C      3.2844    7.7106    6.2153 
C      2.6894    2.2837    7.9936 
C     10.2208    8.4442    3.4865 
C      4.3348    4.4273    3.6557 
C      7.2410    1.1589   10.2496 
C      6.6055   10.1997    4.1427 
C      2.8739    3.7170   10.4386 
C      0.4088    5.0949    7.7684 
C     10.2498    7.7933    5.7412 
C      6.2724    4.3531    5.9861 
C      0.1095    5.8055    3.2982 
C      8.2663    1.7991    3.0407 
C      5.4379    9.6899    3.7759 
C      7.4683    5.3925    0.3207 
C      0.5053    3.9583    0.4355 
C      0.2215    7.6860   10.3897 
C      8.6201    0.5769   10.2162 
C      9.3148    7.2286    3.2532 
C      6.7929    6.1130    2.6292 
C      2.1195    7.7591    0.4880 
C      1.1277    0.9060    4.3746 
C      4.9642    8.5572    3.6474 
C      2.7704    6.9925    3.7962 
C      9.0443    8.7536    7.7043 
C      8.5821    3.4139    1.5221 
C      2.5186    9.3350    1.1291 
C      2.1212    8.5403    8.4324 
C      7.2268   10.1549    1.6961 
C      9.9824    0.2900    6.3063 
C      2.8429    3.2146    1.5865 
C      1.4332   10.1967    2.2601 
C      6.6527    8.5943    7.2335 
C      4.0030    3.8899    2.0571 
C      7.0012    5.9297    7.4486 
C      4.6612    1.9064    6.8206 
C      5.9732    6.3610    6.9768 
C      0.5379    1.6407    3.2311 
C      5.3654    1.3035    1.1307 
C      6.4996    3.2109    2.9779 
C      6.1915    0.2220    8.2650 
C      4.4962    0.9044    5.7059 
C      9.3878    3.3197    6.1855 
C      3.4218    6.2681    9.3650 
C      2.8224    2.8407    5.3854 
C      0.3260    8.8057    4.5814 
C     10.2381    4.2907    7.0683 
C      4.7423    1.7508    3.6095 
C      1.5861    3.8746    9.7864 
C      6.0551    3.3732    5.6334 
C      7.1227    9.4405    8.6222 
C      5.3304    5.5394    3.5849 
C      0.3293   10.1444    9.6555 
C      2.6414    6.3566    1.2750 
C      9.7339    6.3336    8.2095 
C      7.1993    6.8338    1.2995 
C      8.1713    2.7678    4.4166 
C      1.3139    2.1968    5.2953 
C      3.8969    4.6359    7.0982 
C      8.7176    0.5073    7.0590 
C      6.7625    2.8955    8.7604 
C      2.9692    4.0267    4.5164 
