128
Lattice="10.471 0.0 0.0 0.0 10.471 0.0 0.0 0.0 10.471" pbc="T T T"
C      2.8814    3.6054    7.6353 
C      8.4638    0.3677    8.9249 
C      2.2133    9.1508    3.4037 
C      8.4022    4.3398    9.3417 
C     10.2536    2.5692    2.9940 
C      8.8696    1.9083    0.9962 
C      8.6675    6.7645    9.3269 
C      9.4661    5.7228    6.7423 
C      4.7407    4.1573    5.8771 
C      9.1758    1.6320    9.0979 
C      3.1808    0.0927   10.4299 
C     10.2377    2.1151    1.3232 
C      2.6600    5.1291    4.9725 
C      6.2968    7.4062    5.7735 
C      9.8316    9.1643    2.5893 
C      0.5887    6.4954    4.9524 
C      5.9853   10.2805    4.4272 
C      9.5460    8.4542    5.3572 
C     10.2531    6.4737    7.5143 
C      4.7387    6.6030    8.6751 
C      0.5083    8.1702    0.1424 
C      7.2686    6.4727    6.5172 
C      1.9471    1.8390    4.4374 
C      8.7161    8.1879    9.0247 
C      4.1788    4.1821    7.5006 
C      8.0284    9.4908    0.9876 
C      8.3920    8.3297    2.0412 
C      8.5492    5.2879    3.4952 
C      1.1811    0.7464    3.9714 
C      6.9193    0.6900    9.0887 
C      1.1968    2.9854    3.2259 
C      2.9508    2.0912    7.8115 
C      6.3737    9.9901    8.6940 
C      1.5084    3.6631    1.3810 
C      6.9278   10.3628    5.8734 
C      1.2274    5.4303    4.7443 
C      0.4283    3.6250    0.4272 
C     10.1118    4.6900    0.5897 
C      9.3392    0.7357    5.0301 
C      6.2395    1.3374    2.6257 
C      0.1480   10.2694    8.1518 
C      2.5983   10.1021    2.3455 
C      3.3173    1.3723    6.7038 
C      3.8911    5.5487    8.1783 
C      9.3853    3.2838    3.1211 
C      2.5071    6.8160    6.5323 
C      2.2596    6.1466    0.0016 
C      2.8304    7.6699    3.4951 
C      5.1975    3.7995    4.8237 
C      1.0279    9.7768    6.0568 
C      1.2691    0.1605    2.0491 
C      3.3715    3.6889    2.9897 
C      5.8228    8.8727    6.7148 
C      1.9815    2.6109    5.4292 
C      7.9401    5.9747    6.8793 
C     10.3146    1.3199    3.9169 
C      8.7955    5.9789    4.4522 
C      6.4171    9.7147    1.0720 
C      1.8463    4.3420    8.4636 
C      9.1130    8.8863    6.3730 
C      2.9182    9.8480    8.9507 
C      6.9899    1.5844    1.2471 
C      3.1389    9.5719    1.0884 
C      3.2096    8.7053    7.7561 
C      7.4292    3.8495    1.7448 
C      2.2262    1.7143    0.1930 
C      3.9594    0.2664    2.8849 
C      4.5219    1.0449    0.6927 
C      3.3870    1.4872    4.0321 
C      5.1636    3.4769    8.2978 
C      4.2748    7.0376    1.7851 
C      5.1105    6.8251    4.5333 
C      8.4295    4.2445    2.7898 
C      6.4024    1.3315    6.8825 
C      0.6090    8.1441    9.4019 
C      3.8737    0.7853    5.2020 
C      9.9355    5.7151    0.8340 
C      1.1870    3.3052    9.1478 
C      4.9009    5.2713    3.7734 
C      3.8651    7.5713    4.6623 
C      8.5529    9.3341    9.9603 
C      2.5108    6.0321    8.8524 
C      0.5687    4.0104    6.4646 
C      0.2602    9.1486    7.2595 
C      4.1124    2.7463    1.2561 
C      0.8533    1.1164    1.0960 
C      5.8744    7.1147    2.7574 
C      2.7653    2.9893    0.6129 
C      5.2270    7.9889    9.0957 
C      8.6500    3.7618    5.9976 
C      9.2982    6.7002    1.3510 
C      1.7833    6.4329    1.5766 
C      5.0222    3.6180    9.7917 
C      5.4590    0.0444    3.1137 
C      4.9037    8.1837   10.4277 
C      9.7424    4.3989    6.6053 
C      1.6375    9.7599    4.6589 
C      3.9540    2.9561    3.8973 
C      6.1663    0.6550    0.3221 
C      6.5678    2.3827    3.7793 
C      0.7213    7.8953    1.3963 
C      4.2337    8.4930    1.3283 
C      2.9645    6.6310    2.4992 
C      8.5705    5.3911    9.3025 
C      8.6433    0.0416    6.2106 
C      5.9544    2.3471    7.5587 
C      1.7348    1.8263    9.1261 
C      9.8698    8.8175    4.0523 
C      7.0590    7.1999    2.4967 
C      6.7495    3.1230    0.9065 
C      7.7596    3.2955    5.4490 
C      0.4078    1.2237    8.7400 
C      5.7274    9.1414    2.3350 
C      0.6338    9.0153    2.2351 
C      5.1309    3.4553    0.4200 
C      3.1694    6.5172    5.5872 
C      0.7498    7.9032    7.9579 
C      8.6850    8.3598    7.5885 
C      2.3840    7.4291    7.8941 
C      3.9071   10.0659    5.3215 
C      8.6133    3.0058    9.0310 
C      5.9302    8.6420    8.3832 
C      9.6334    6.8744    5.2478 
C      6.4832    3.1622    4.7712 
C      8.5241    0.4497    7.3450 
C      2.1696    3.6238    6.0240 
C      3.4943    5.1613    3.5450 
C      4.1069    8.9297    5.9347 
